&domains
 np = 16                  ! Number of generating points - is ignored in case of read file
 n_scvt_iterations = 0     ! Number of Lloyd iterations before generating a grid file - leave 0 just to convert a xyz file to MPAS format
 restart_interval = 100    ! Number of iterations between write of restart files
 eps = 1.0e-10             ! Convergence criterion (max L2 movement of generating points)
 min_dx = 0.0              ! Minimum desired dx in mesh (>0 causes estimate for # generators to be computed)
/

&files
      work_dir="../../grids/marta/"        !Directory where grids are and will be stored - leave blank for current (ex: ../grid40km/)
      locs_dat="mesh3-lev6.xyz"              !Input file with original xyz nodes file
      locs_dat_out="mesh3-lev5out.xyz"      !Output with xyz nodes after optimization
      graph_info="mesh3-lev6.graph.info"     ! Graph info to be used by metis 
      grid_nc="mesh3-lev6_grid.nc"            ! MPAS formated grid
      plotin="mesh3-lev6_initial.ps"         !Plot of initial grid
      plotout="mesh3-lev6_final.ps"          !Plot of final optimized grid
/
