&nhyd_model
   config_start_time = '0000-01-01_00:00:00'
   config_init_case = 1
/

&dimensions
   config_nvertlevels = 30
/

&decomposition
   config_block_decomp_file_prefix = '../grids/x1.163842/HR95HK_007.graph.info.part.' 
/
